<?xml version="1.0" encoding="UTF-8"?>

<!-- generated on 2025-06-11 00:07:37.905026 by randomTrips.py UNKNOWN
<configuration>
    <net-file value="m.net.xml"/>
    <output-trip-file value="m.rou.xml"/>
    <seed value="1"/>
    <end value="80.0"/>
    <period value="10.0"/>
</configuration>
-->

<routes xmlns:xsi="http://www.w3.org/2001/XMLSchema-instance" xsi:noNamespaceSchemaLocation="http://sumo.dlr.de/xsd/routes_file.xsd">
    <trip id="0" depart="0.00" from="-2" to="7"/>
    <trip id="1" depart="10.00" from="3" to="-3"/>
    <trip id="2" depart="20.00" from="-9" to="-8"/>
    <trip id="3" depart="40.00" from="-9" to="10"/>
</routes>
