<routes>
    <vType id="car" accel="1.0" decel="4.5" sigma="0.5" length="4.0" maxSpeed="25"/>
    <route id="route0" edges="-0 -1 -10 -2 -3 -4 -5 -6 -7 -8 -9 0 1 10 2 3 4 5 6 7 8 9"/>
    <vehicle id="veh0" type="car" route="route0" depart="0"/>
</routes>