<types>
    <type id="driving" vClass="passenger"/>
</types>