<?xml version="1.0" encoding="UTF-8"?>

<!-- generated on 2025-06-15 17:10:34 by Eclipse SUMO netconvert Version 1.23.1
<netconvertConfiguration xmlns:xsi="http://www.w3.org/2001/XMLSchema-instance" xsi:noNamespaceSchemaLocation="http://sumo.dlr.de/xsd/netconvertConfiguration.xsd">

    <input>
        <type-files value="custom_types.typ.xml"/>
        <opendrive-files value="m.xodr"/>
    </input>

    <output>
        <output-file value="m.net.xml"/>
    </output>

    <junctions>
        <no-turnarounds.except-deadend value="true"/>
    </junctions>

</netconvertConfiguration>
-->

<net version="1.20" junctionCornerDetail="5" rectangularLaneCut="true" limitTurnSpeed="5.50" xmlns:xsi="http://www.w3.org/2001/XMLSchema-instance" xsi:noNamespaceSchemaLocation="http://sumo.dlr.de/xsd/net_file.xsd">

    <location netOffset="92.94,23.08" convBoundary="0.00,0.00,185.66,45.94" origBoundary="-92.94,-23.08,92.72,22.86" projParameter="!"/>

    <type id="driving"/>

    <edge id=":10_0" function="internal">
        <lane id=":10_0_0" index="0" speed="7.50" length="9.47" width="3.50" shape="53.72,24.90 51.22,25.23 49.21,26.20 47.68,27.82 46.65,30.08"/>
    </edge>
    <edge id=":10_1" function="internal">
        <lane id=":10_1_0" index="0" speed="8.98" length="13.96" width="3.50" shape="53.72,24.90 50.09,24.42 47.16,22.97 44.92,20.54 43.39,17.14"/>
    </edge>
    <edge id=":10_2" function="internal">
        <lane id=":10_2_0" index="0" speed="7.50" length="9.46" width="3.50" shape="46.73,16.12 47.78,18.43 49.29,20.08 51.27,21.07 53.72,21.40"/>
    </edge>
    <edge id=":10_3" function="internal">
        <lane id=":10_3_0" index="0" speed="15.48" length="14.18" width="3.50" shape="46.73,16.12 47.55,19.64 47.79,23.10 47.49,26.56 46.65,30.08"/>
    </edge>
    <edge id=":10_4" function="internal">
        <lane id=":10_4_0" index="0" speed="14.39" length="12.16" width="3.50" shape="43.30,29.07 44.14,25.86 44.44,23.10 44.20,20.35 43.39,17.14"/>
    </edge>
    <edge id=":10_5" function="internal">
        <lane id=":10_5_0" index="0" speed="8.98" length="3.81" width="3.50" shape="43.30,29.07 44.83,25.72 44.92,25.62"/>
    </edge>
    <edge id=":10_6" function="internal">
        <lane id=":10_6_0" index="0" speed="8.98" length="10.16" width="3.50" shape="44.92,25.62 47.07,23.32 50.03,21.88 53.72,21.40"/>
    </edge>
    <edge id=":30_0" function="internal">
        <lane id=":30_0_0" index="0" speed="7.52" length="9.41" width="3.50" shape="139.52,30.05 138.45,27.76 136.93,26.12 134.96,25.13 132.54,24.81"/>
    </edge>
    <edge id=":30_1" function="internal">
        <lane id=":30_1_0" index="0" speed="14.46" length="14.24" width="3.50" shape="139.52,30.05 138.64,26.52 138.34,23.04 138.64,19.57 139.55,16.05"/>
    </edge>
    <edge id=":30_2" function="internal">
        <lane id=":30_2_0" index="0" speed="13.36" length="12.06" width="3.50" shape="142.86,17.20 141.95,20.37 141.67,23.08 141.98,25.80 142.85,28.98"/>
    </edge>
    <edge id=":30_3" function="internal">
        <lane id=":30_3_0" index="0" speed="9.09" length="3.70" width="3.50" shape="142.86,17.20 141.22,20.53"/>
    </edge>
    <edge id=":30_6" function="internal">
        <lane id=":30_6_0" index="0" speed="9.09" length="10.07" width="3.50" shape="141.22,20.53 138.96,22.90 136.07,24.33 132.54,24.81"/>
    </edge>
    <edge id=":30_4" function="internal">
        <lane id=":30_4_0" index="0" speed="7.61" length="9.41" width="3.50" shape="132.54,21.31 134.92,20.98 136.89,19.99 138.43,18.35 139.55,16.05"/>
    </edge>
    <edge id=":30_5" function="internal">
        <lane id=":30_5_0" index="0" speed="9.00" length="13.86" width="3.50" shape="132.54,21.31 136.12,21.78 139.04,23.22 141.28,25.62 142.85,28.98"/>
    </edge>
    <edge id=":4.1_0" function="internal">
        <lane id=":4.1_0_0" index="0" speed="17.88" length="0.16" width="3.50" shape="2.68,16.71 2.67,16.75 2.66,16.79 2.65,16.82 2.64,16.86"/>
    </edge>
    <edge id=":4.1_1" function="internal">
        <lane id=":4.1_1_0" index="0" speed="17.88" length="0.48" width="3.50" shape="-0.75,16.00 -0.72,15.86 -0.69,15.77 -0.66,15.67 -0.61,15.54"/>
    </edge>
    <edge id=":4.2_0" function="internal">
        <lane id=":4.2_0_0" index="0" speed="17.88" length="0.16" width="3.50" shape="29.23,2.68 29.18,2.67 29.15,2.66 29.12,2.65 29.07,2.64"/>
    </edge>
    <edge id=":4.2_1" function="internal">
        <lane id=":4.2_1_0" index="0" speed="17.88" length="0.48" width="3.50" shape="29.94,-0.75 30.08,-0.72 30.17,-0.69 30.26,-0.66 30.40,-0.61"/>
    </edge>
    <edge id=":5.0_0" function="internal">
        <lane id=":5.0_0_0" index="0" speed="17.88" length="0.42" width="3.50" shape="163.08,47.55 162.65,47.55"/>
    </edge>
    <edge id=":5.0_1" function="internal">
        <lane id=":5.0_1_0" index="0" speed="17.88" length="0.14" width="3.50" shape="162.82,44.05 162.96,44.05"/>
    </edge>
    <edge id=":6.5_0" function="internal">
        <lane id=":6.5_0_0" index="0" speed="17.88" length="0.42" width="3.50" shape="187.40,22.99 187.40,23.41"/>
    </edge>
    <edge id=":6.5_1" function="internal">
        <lane id=":6.5_1_0" index="0" speed="17.88" length="0.14" width="3.50" shape="183.90,23.25 183.90,23.11"/>
    </edge>
    <edge id=":7.6_0" function="internal">
        <lane id=":7.6_0_0" index="0" speed="17.88" length="0.12" width="3.50" shape="163.08,2.16 162.96,2.16"/>
    </edge>
    <edge id=":7.6_1" function="internal">
        <lane id=":7.6_1_0" index="0" speed="17.88" length="0.37" width="3.50" shape="162.88,-1.34 163.24,-1.33"/>
    </edge>
    <edge id=":9.1_0" function="internal">
        <lane id=":9.1_0_0" index="0" speed="17.88" length="0.48" width="3.50" shape="16.00,46.69 15.86,46.65 15.77,46.63 15.67,46.60 15.54,46.55"/>
    </edge>
    <edge id=":9.1_1" function="internal">
        <lane id=":9.1_1_0" index="0" speed="17.88" length="0.16" width="3.50" shape="16.71,43.25 16.75,43.27 16.79,43.28 16.82,43.29 16.86,43.30"/>
    </edge>
    <edge id=":9.3_0" function="internal">
        <lane id=":9.3_0_0" index="0" speed="17.88" length="0.10" width="3.50" shape="46.61,30.22 46.59,30.29"/>
    </edge>
    <edge id=":9.3_1" function="internal">
        <lane id=":9.3_1_0" index="0" speed="17.88" length="0.10" width="3.50" shape="43.29,29.12 43.26,29.20"/>
    </edge>

    <edge id="-0" from="5.0" to="30" priority="1" type="driving" shape="162.88,45.81 160.88,45.71 158.90,45.44 156.95,45.00 155.05,44.39 153.21,43.61 151.44,42.67 149.76,41.58 148.19,40.35 146.73,38.98 145.40,37.49 144.20,35.89 143.15,34.19 142.25,32.40 141.51,30.55 141.18,29.52">
        <lane id="-0_0" index="0" speed="17.88" length="31.05" width="3.50" shape="162.65,47.55 160.72,47.46 158.59,47.17 156.49,46.69 154.44,46.03 152.45,45.19 150.55,44.18 148.75,43.01 147.05,41.68 145.48,40.21 144.04,38.60 142.75,36.88 141.62,35.05 140.65,33.12 139.87,31.15 139.52,30.05" type="driving"/>
    </edge>
    <edge id="-1" from="9.1" to="4.1" priority="1" type="driving" shape="16.23,44.94 14.34,44.27 12.53,43.44 10.79,42.45 9.14,41.32 7.60,40.05 6.17,38.65 4.87,37.13 3.71,35.50 2.69,33.78 1.83,31.98 1.12,30.11 0.59,28.18 0.22,26.21 0.02,24.23 0.00,22.23 0.15,20.23 0.48,18.26 0.97,16.32">
        <lane id="-1_0" index="0" speed="17.88" length="38.36" width="3.50" shape="15.54,46.55 13.69,45.89 11.73,45.00 9.86,43.94 8.08,42.72 6.42,41.35 4.89,39.84 3.49,38.21 2.24,36.46 1.14,34.61 0.22,32.66 -0.54,30.65 -1.12,28.58 -1.52,26.46 -1.73,24.32 -1.75,22.17 -1.59,20.02 -1.24,17.90 -0.75,16.00" type="driving"/>
    </edge>
    <edge id="-2" from="4.2" to="10" priority="1" type="driving" shape="29.71,1.00 31.59,1.67 33.41,2.50 35.15,3.48 36.80,4.62 38.34,5.89 39.77,7.29 41.07,8.81 42.23,10.43 43.25,12.16 44.11,13.96 44.81,15.83 45.06,16.63">
        <lane id="-2_0" index="0" speed="17.88" length="24.35" width="3.50" shape="30.40,-0.61 32.25,0.04 34.21,0.94 36.08,2.00 37.85,3.22 39.51,4.59 41.05,6.09 42.45,7.73 43.70,9.48 44.79,11.33 45.72,13.27 46.46,15.25 46.73,16.12" type="driving"/>
    </edge>
    <edge id="-3" from="10" to="9.3" priority="1" type="driving" shape="44.98,29.58 44.94,29.71">
        <lane id="-3_0" index="0" speed="17.88" length="0.14" width="3.50" shape="46.65,30.08 46.61,30.22" type="driving"/>
    </edge>
    <edge id="-4" from="4.1" to="4.2" priority="1" type="driving" shape="1.00,16.23 1.67,14.34 2.50,12.53 3.48,10.79 4.62,9.14 5.89,7.60 7.29,6.17 8.81,4.87 10.43,3.71 12.16,2.69 13.96,1.83 15.83,1.12 17.76,0.59 19.72,0.22 21.71,0.02 23.71,0.00 25.70,0.15 27.68,0.48 29.61,0.97">
        <lane id="-4_0" index="0" speed="17.88" length="38.36" width="3.50" shape="-0.61,15.54 0.04,13.69 0.94,11.73 2.00,9.86 3.22,8.08 4.59,6.42 6.09,4.89 7.73,3.49 9.48,2.24 11.33,1.14 13.27,0.22 15.29,-0.54 17.36,-1.12 19.47,-1.52 21.62,-1.73 23.77,-1.75 25.91,-1.59 28.04,-1.24 29.94,-0.75" type="driving"/>
    </edge>
    <edge id="-5" from="6.5" to="5.0" priority="1" type="driving" shape="185.66,23.19 185.56,25.19 185.29,27.17 184.85,29.12 184.24,31.02 183.46,32.86 182.52,34.63 181.43,36.30 180.20,37.88 178.83,39.34 177.34,40.67 175.74,41.87 174.04,42.92 172.25,43.82 170.40,44.56 168.48,45.13 166.52,45.53 164.53,45.75 162.88,45.81">
        <lane id="-5_0" index="0" speed="17.88" length="37.97" width="3.50" shape="187.40,23.41 187.31,25.35 187.02,27.48 186.54,29.58 185.88,31.63 185.04,33.61 184.03,35.52 182.86,37.32 181.53,39.02 180.06,40.59 178.45,42.03 176.73,43.32 174.90,44.45 172.97,45.42 170.97,46.21 168.91,46.83 166.80,47.26 164.66,47.50 163.08,47.55" type="driving"/>
    </edge>
    <edge id="-6" from="7.6" to="6.5" priority="1" type="driving" shape="163.04,0.41 165.04,0.50 167.02,0.77 168.97,1.22 170.87,1.83 172.71,2.61 174.48,3.55 176.15,4.64 177.73,5.87 179.19,7.24 180.52,8.73 181.72,10.33 182.77,12.03 183.67,13.81 184.41,15.67 184.98,17.59 185.38,19.55 185.60,21.53 185.66,23.19">
        <lane id="-6_0" index="0" speed="17.88" length="37.99" width="3.50" shape="163.24,-1.33 165.20,-1.24 167.33,-0.95 169.43,-0.47 171.48,0.19 173.46,1.03 175.37,2.04 177.17,3.21 178.87,4.54 180.44,6.01 181.88,7.62 183.17,9.34 184.30,11.17 185.27,13.10 186.06,15.10 186.68,17.16 187.11,19.27 187.35,21.40 187.40,22.99" type="driving"/>
    </edge>
    <edge id="-7" from="30" to="7.6" priority="1" type="driving" shape="141.20,16.63 141.86,14.74 142.68,12.91 143.65,11.17 144.78,9.52 146.04,7.97 147.44,6.54 148.96,5.24 150.59,4.08 152.31,3.06 154.11,2.20 155.99,1.51 157.92,0.98 159.88,0.62 161.87,0.43 163.04,0.41">
        <lane id="-7_0" index="0" speed="17.88" length="31.16" width="3.50" shape="139.55,16.05 140.23,14.09 141.11,12.13 142.16,10.25 143.37,8.47 144.74,6.80 146.24,5.26 147.88,3.86 149.63,2.61 151.49,1.51 153.43,0.59 155.45,-0.16 157.53,-0.73 159.65,-1.12 161.76,-1.31 162.88,-1.34" type="driving"/>
    </edge>
    <edge id="-8" from="10" to="30" priority="1" type="driving" shape="53.72,23.15 132.54,23.06">
        <lane id="-8_0" index="0" speed="17.88" length="78.82" width="3.50" shape="53.72,21.40 132.54,21.31" type="driving"/>
    </edge>
    <edge id="-9" from="9.3" to="9.1" priority="1" type="driving" shape="44.94,29.71 44.27,31.59 43.44,33.41 42.45,35.15 41.32,36.80 40.05,38.34 38.65,39.77 37.13,41.07 35.50,42.23 33.78,43.25 31.98,44.11 30.11,44.81 28.18,45.35 26.21,45.72 24.23,45.91 22.23,45.94 20.23,45.79 18.26,45.46 16.32,44.97">
        <lane id="-9_0" index="0" speed="17.88" length="38.47" width="3.50" shape="46.59,30.29 45.89,32.25 45.00,34.21 43.94,36.08 42.72,37.85 41.35,39.51 39.84,41.05 38.21,42.45 36.46,43.70 34.61,44.79 32.66,45.72 30.65,46.48 28.58,47.06 26.46,47.45 24.32,47.66 22.17,47.69 20.02,47.52 17.90,47.18 16.00,46.69" type="driving"/>
    </edge>
    <edge id="0" from="30" to="5.0" priority="1" type="driving" shape="141.18,29.52 141.51,30.55 142.25,32.40 143.15,34.19 144.20,35.89 145.40,37.49 146.73,38.98 148.19,40.35 149.76,41.58 151.44,42.67 153.21,43.61 155.05,44.39 156.95,45.00 158.90,45.44 160.88,45.71 162.88,45.81">
        <lane id="0_0" index="0" speed="17.88" length="26.81" width="3.50" shape="142.85,28.98 143.16,29.96 143.85,31.69 144.68,33.34 145.65,34.90 146.75,36.38 147.98,37.76 149.33,39.02 150.78,40.15 152.33,41.16 153.96,42.03 155.66,42.74 157.41,43.31 159.21,43.72 161.04,43.97 162.82,44.05" type="driving"/>
    </edge>
    <edge id="1" from="4.1" to="9.1" priority="1" type="driving" shape="0.97,16.32 0.48,18.26 0.15,20.23 0.00,22.23 0.02,24.23 0.22,26.21 0.59,28.18 1.12,30.11 1.83,31.98 2.69,33.78 3.71,35.50 4.87,37.13 6.17,38.65 7.60,40.05 9.14,41.32 10.79,42.45 12.53,43.44 14.34,44.27 16.23,44.94">
        <lane id="1_0" index="0" speed="17.88" length="33.18" width="3.50" shape="2.64,16.86 2.19,18.62 1.89,20.44 1.75,22.28 1.77,24.13 1.95,25.97 2.29,27.78 2.79,29.56 3.44,31.29 4.24,32.96 5.18,34.55 6.25,36.05 7.45,37.45 8.77,38.75 10.19,39.92 11.71,40.97 13.32,41.88 15.00,42.65 16.71,43.25" type="driving"/>
    </edge>
    <edge id="2" from="10" to="4.2" priority="1" type="driving" shape="45.06,16.63 44.81,15.83 44.11,13.96 43.25,12.16 42.23,10.43 41.07,8.81 39.77,7.29 38.34,5.89 36.80,4.62 35.15,3.48 33.41,2.50 31.59,1.67 29.71,1.00">
        <lane id="2_0" index="0" speed="17.88" length="21.09" width="3.50" shape="43.39,17.14 43.16,16.40 42.50,14.65 41.70,12.98 40.76,11.39 39.69,9.89 38.49,8.48 37.17,7.19 35.74,6.01 34.22,4.97 32.62,4.06 30.94,3.29 29.23,2.68" type="driving"/>
    </edge>
    <edge id="3" from="9.3" to="10" priority="1" type="driving" shape="44.94,29.71 44.98,29.58">
        <lane id="3_0" index="0" speed="17.88" length="0.14" width="3.50" shape="43.26,29.20 43.30,29.07" type="driving"/>
    </edge>
    <edge id="4" from="4.2" to="4.1" priority="1" type="driving" shape="29.61,0.97 27.68,0.48 25.70,0.15 23.71,0.00 21.71,0.02 19.72,0.22 17.76,0.59 15.83,1.12 13.96,1.83 12.16,2.69 10.43,3.71 8.81,4.87 7.29,6.17 5.89,7.60 4.62,9.14 3.48,10.79 2.50,12.53 1.67,14.34 1.00,16.23">
        <lane id="4_0" index="0" speed="17.88" length="33.18" width="3.50" shape="29.07,2.64 27.32,2.19 25.50,1.89 23.65,1.75 21.81,1.77 19.97,1.95 18.15,2.29 16.38,2.79 14.65,3.44 12.98,4.24 11.39,5.18 9.89,6.25 8.48,7.45 7.19,8.77 6.01,10.19 4.97,11.71 4.06,13.32 3.29,15.00 2.68,16.71" type="driving"/>
    </edge>
    <edge id="5" from="5.0" to="6.5" priority="1" type="driving" shape="162.88,45.81 164.53,45.75 166.52,45.53 168.48,45.13 170.40,44.56 172.25,43.82 174.04,42.92 175.74,41.87 177.34,40.67 178.83,39.34 180.20,37.88 181.43,36.30 182.52,34.63 183.46,32.86 184.24,31.02 184.85,29.12 185.29,27.17 185.56,25.19 185.66,23.19">
        <lane id="5_0" index="0" speed="17.88" length="32.75" width="3.50" shape="162.96,44.05 164.41,44.01 166.25,43.80 168.05,43.43 169.82,42.90 171.54,42.22 173.19,41.39 174.75,40.42 176.23,39.32 177.61,38.08 178.87,36.74 180.00,35.28 181.01,33.74 181.88,32.11 182.59,30.41 183.16,28.65 183.57,26.85 183.82,25.03 183.90,23.25" type="driving"/>
    </edge>
    <edge id="6" from="6.5" to="7.6" priority="1" type="driving" shape="185.66,23.19 185.60,21.53 185.38,19.55 184.98,17.59 184.41,15.67 183.67,13.81 182.77,12.03 181.72,10.33 180.52,8.73 179.19,7.24 177.73,5.87 176.15,4.64 174.48,3.55 172.71,2.61 170.87,1.83 168.97,1.22 167.02,0.77 165.04,0.50 163.04,0.41">
        <lane id="6_0" index="0" speed="17.88" length="32.77" width="3.50" shape="183.90,23.11 183.86,21.66 183.65,19.82 183.28,18.01 182.75,16.25 182.07,14.53 181.24,12.88 180.27,11.31 179.17,9.84 177.93,8.46 176.59,7.20 175.13,6.06 173.59,5.06 171.96,4.19 170.26,3.47 168.50,2.91 166.70,2.50 164.88,2.25 163.08,2.16" type="driving"/>
    </edge>
    <edge id="7" from="7.6" to="30" priority="1" type="driving" shape="163.04,0.41 161.87,0.43 159.88,0.62 157.92,0.98 155.99,1.51 154.11,2.20 152.31,3.06 150.59,4.08 148.96,5.24 147.44,6.54 146.04,7.97 144.78,9.52 143.65,11.17 142.68,12.91 141.86,14.74 141.20,16.63">
        <lane id="7_0" index="0" speed="17.88" length="26.91" width="3.50" shape="162.96,2.16 161.97,2.18 160.12,2.35 158.31,2.68 156.53,3.17 154.80,3.82 153.13,4.61 151.54,5.54 150.04,6.62 148.64,7.82 147.35,9.14 146.18,10.57 145.14,12.09 144.24,13.70 143.49,15.38 142.86,17.20" type="driving"/>
    </edge>
    <edge id="8" from="30" to="10" priority="1" type="driving" shape="132.54,23.06 53.72,23.15">
        <lane id="8_0" index="0" speed="17.88" length="78.82" width="3.50" shape="132.54,24.81 53.72,24.90" type="driving"/>
    </edge>
    <edge id="9" from="9.1" to="9.3" priority="1" type="driving" shape="16.32,44.97 18.26,45.46 20.23,45.79 22.23,45.94 24.23,45.91 26.21,45.72 28.18,45.35 30.11,44.81 31.98,44.11 33.78,43.25 35.50,42.23 37.13,41.07 38.65,39.77 40.05,38.34 41.32,36.80 42.45,35.15 43.44,33.41 44.27,31.59 44.94,29.71">
        <lane id="9_0" index="0" speed="17.88" length="33.29" width="3.50" shape="16.86,43.30 18.62,43.75 20.44,44.05 22.28,44.19 24.13,44.17 25.97,43.98 27.78,43.64 29.56,43.15 31.29,42.50 32.96,41.70 34.55,40.76 36.05,39.69 37.45,38.49 38.75,37.17 39.92,35.74 40.97,34.22 41.88,32.62 42.65,30.94 43.29,29.12" type="driving"/>
    </edge>

    <junction id="10" type="priority" x="49.35" y="23.13" incLanes="8_0 -2_0 3_0" intLanes=":10_0_0 :10_1_0 :10_2_0 :10_3_0 :10_4_0 :10_6_0" shape="53.72,26.65 53.72,19.65 51.32,19.20 50.36,18.64 49.55,17.85 48.90,16.84 48.40,15.60 41.71,17.66 42.37,19.91 42.75,21.64 42.86,23.11 42.71,24.57 42.30,26.30 41.63,28.56 48.33,30.59 49.46,28.40 50.27,27.64 51.26,27.09 52.41,26.76">
        <request index="0" response="001000" foes="001000" cont="0"/>
        <request index="1" response="111000" foes="111000" cont="0"/>
        <request index="2" response="000000" foes="100000" cont="0"/>
        <request index="3" response="000000" foes="100011" cont="0"/>
        <request index="4" response="000000" foes="000010" cont="0"/>
        <request index="5" response="001100" foes="001110" cont="1"/>
    </junction>
    <junction id="30" type="priority" x="136.87" y="23.07" incLanes="-0_0 7_0 -8_0" intLanes=":30_0_0 :30_1_0 :30_2_0 :30_6_0 :30_4_0 :30_5_0" shape="137.85,30.59 144.52,28.45 143.83,26.24 143.40,24.54 143.25,23.10 143.37,21.65 143.79,19.96 144.51,17.77 137.90,15.48 136.67,17.74 135.85,18.54 134.89,19.10 133.78,19.44 132.53,19.56 132.54,26.56 134.91,27.00 135.87,27.56 136.68,28.35 137.34,29.35">
        <request index="0" response="000000" foes="001000" cont="0"/>
        <request index="1" response="000000" foes="111000" cont="0"/>
        <request index="2" response="000000" foes="100000" cont="0"/>
        <request index="3" response="000011" foes="100011" cont="1"/>
        <request index="4" response="000010" foes="000010" cont="0"/>
        <request index="5" response="001110" foes="001110" cont="0"/>
    </junction>
    <junction id="4.1" type="priority" x="0.97" y="16.32" incLanes="4_0 -1_0" intLanes=":4.1_0_0 :4.1_1_0" shape="4.33,17.30 -2.26,14.95 -2.34,15.18 -2.37,15.26 -2.41,15.43 -2.45,15.56">
        <request index="0" response="00" foes="00" cont="0"/>
        <request index="1" response="00" foes="00" cont="0"/>
    </junction>
    <junction id="4.2" type="priority" x="29.71" y="1.00" incLanes="2_0 -4_0" intLanes=":4.2_0_0 :4.2_1_0" shape="28.64,4.33 30.98,-2.26 30.76,-2.34 30.68,-2.37 30.50,-2.41 30.37,-2.45">
        <request index="0" response="00" foes="00" cont="0"/>
        <request index="1" response="00" foes="00" cont="0"/>
    </junction>
    <junction id="5.0" type="priority" x="162.88" y="45.81" incLanes="-5_0 0_0" intLanes=":5.0_0_0 :5.0_1_0" shape="163.14,49.30 162.90,42.31 162.57,49.30">
        <request index="0" response="00" foes="00" cont="0"/>
        <request index="1" response="00" foes="00" cont="0"/>
    </junction>
    <junction id="6.5" type="priority" x="185.66" y="23.19" incLanes="-6_0 5_0" intLanes=":6.5_0_0 :6.5_1_0" shape="189.15,22.93 182.16,23.16 189.15,23.50">
        <request index="0" response="00" foes="00" cont="0"/>
        <request index="1" response="00" foes="00" cont="0"/>
    </junction>
    <junction id="7.6" type="priority" x="163.04" y="0.41" incLanes="6_0 -7_0" intLanes=":7.6_0_0 :7.6_1_0" shape="162.99,3.91 163.33,-3.08 162.84,-3.09">
        <request index="0" response="00" foes="00" cont="0"/>
        <request index="1" response="00" foes="00" cont="0"/>
    </junction>
    <junction id="9.1" type="priority" x="16.23" y="44.94" incLanes="-9_0 1_0" intLanes=":9.1_0_0 :9.1_1_0" shape="15.56,48.39 17.30,41.60 14.95,48.20 15.18,48.28 15.26,48.30 15.43,48.35">
        <request index="0" response="00" foes="00" cont="0"/>
        <request index="1" response="00" foes="00" cont="0"/>
    </junction>
    <junction id="9.3" type="priority" x="44.94" y="29.71" incLanes="-3_0 9_0" intLanes=":9.3_0_0 :9.3_1_0" shape="48.32,30.63 41.62,28.60 48.20,30.97">
        <request index="0" response="00" foes="00" cont="0"/>
        <request index="1" response="00" foes="00" cont="0"/>
    </junction>

    <junction id=":10_6_0" type="internal" x="44.92" y="25.62" incLanes=":10_5_0 -2_0" intLanes=":10_1_0 :10_2_0 :10_3_0"/>
    <junction id=":30_6_0" type="internal" x="141.22" y="20.53" incLanes=":30_3_0 -0_0" intLanes=":30_0_0 :30_1_0 :30_5_0"/>

    <connection from="-0" to="8" fromLane="0" toLane="0" via=":30_0_0" dir="r" state="M"/>
    <connection from="-0" to="-7" fromLane="0" toLane="0" via=":30_1_0" dir="s" state="M"/>
    <connection from="-1" to="-4" fromLane="0" toLane="0" via=":4.1_1_0" dir="s" state="M"/>
    <connection from="-2" to="-8" fromLane="0" toLane="0" via=":10_2_0" dir="r" state="M"/>
    <connection from="-2" to="-3" fromLane="0" toLane="0" via=":10_3_0" dir="s" state="M"/>
    <connection from="-3" to="-9" fromLane="0" toLane="0" via=":9.3_0_0" dir="s" state="M"/>
    <connection from="-4" to="-2" fromLane="0" toLane="0" via=":4.2_1_0" dir="s" state="M"/>
    <connection from="-5" to="-0" fromLane="0" toLane="0" via=":5.0_0_0" dir="s" state="M"/>
    <connection from="-6" to="-5" fromLane="0" toLane="0" via=":6.5_0_0" dir="s" state="M"/>
    <connection from="-7" to="-6" fromLane="0" toLane="0" via=":7.6_1_0" dir="s" state="M"/>
    <connection from="-8" to="-7" fromLane="0" toLane="0" via=":30_4_0" dir="r" state="m"/>
    <connection from="-8" to="0" fromLane="0" toLane="0" via=":30_5_0" dir="l" state="m"/>
    <connection from="-9" to="-1" fromLane="0" toLane="0" via=":9.1_0_0" dir="s" state="M"/>
    <connection from="0" to="5" fromLane="0" toLane="0" via=":5.0_1_0" dir="s" state="M"/>
    <connection from="1" to="9" fromLane="0" toLane="0" via=":9.1_1_0" dir="s" state="M"/>
    <connection from="2" to="4" fromLane="0" toLane="0" via=":4.2_0_0" dir="s" state="M"/>
    <connection from="3" to="2" fromLane="0" toLane="0" via=":10_4_0" dir="s" state="M"/>
    <connection from="3" to="-8" fromLane="0" toLane="0" via=":10_5_0" dir="l" state="m"/>
    <connection from="4" to="1" fromLane="0" toLane="0" via=":4.1_0_0" dir="s" state="M"/>
    <connection from="5" to="6" fromLane="0" toLane="0" via=":6.5_1_0" dir="s" state="M"/>
    <connection from="6" to="7" fromLane="0" toLane="0" via=":7.6_0_0" dir="s" state="M"/>
    <connection from="7" to="0" fromLane="0" toLane="0" via=":30_2_0" dir="s" state="M"/>
    <connection from="7" to="8" fromLane="0" toLane="0" via=":30_3_0" dir="l" state="m"/>
    <connection from="8" to="-3" fromLane="0" toLane="0" via=":10_0_0" dir="r" state="m"/>
    <connection from="8" to="2" fromLane="0" toLane="0" via=":10_1_0" dir="l" state="m"/>
    <connection from="9" to="3" fromLane="0" toLane="0" via=":9.3_1_0" dir="s" state="M"/>

    <connection from=":10_0" to="-3" fromLane="0" toLane="0" dir="r" state="M"/>
    <connection from=":10_1" to="2" fromLane="0" toLane="0" dir="l" state="M"/>
    <connection from=":10_2" to="-8" fromLane="0" toLane="0" dir="r" state="M"/>
    <connection from=":10_3" to="-3" fromLane="0" toLane="0" dir="s" state="M"/>
    <connection from=":10_4" to="2" fromLane="0" toLane="0" dir="s" state="M"/>
    <connection from=":10_5" to="-8" fromLane="0" toLane="0" via=":10_6_0" dir="l" state="m"/>
    <connection from=":10_6" to="-8" fromLane="0" toLane="0" dir="l" state="M"/>
    <connection from=":30_0" to="8" fromLane="0" toLane="0" dir="r" state="M"/>
    <connection from=":30_1" to="-7" fromLane="0" toLane="0" dir="s" state="M"/>
    <connection from=":30_2" to="0" fromLane="0" toLane="0" dir="s" state="M"/>
    <connection from=":30_3" to="8" fromLane="0" toLane="0" via=":30_6_0" dir="l" state="m"/>
    <connection from=":30_6" to="8" fromLane="0" toLane="0" dir="l" state="M"/>
    <connection from=":30_4" to="-7" fromLane="0" toLane="0" dir="r" state="M"/>
    <connection from=":30_5" to="0" fromLane="0" toLane="0" dir="l" state="M"/>
    <connection from=":4.1_0" to="1" fromLane="0" toLane="0" dir="s" state="M"/>
    <connection from=":4.1_1" to="-4" fromLane="0" toLane="0" dir="s" state="M"/>
    <connection from=":4.2_0" to="4" fromLane="0" toLane="0" dir="s" state="M"/>
    <connection from=":4.2_1" to="-2" fromLane="0" toLane="0" dir="s" state="M"/>
    <connection from=":5.0_0" to="-0" fromLane="0" toLane="0" dir="s" state="M"/>
    <connection from=":5.0_1" to="5" fromLane="0" toLane="0" dir="s" state="M"/>
    <connection from=":6.5_0" to="-5" fromLane="0" toLane="0" dir="s" state="M"/>
    <connection from=":6.5_1" to="6" fromLane="0" toLane="0" dir="s" state="M"/>
    <connection from=":7.6_0" to="7" fromLane="0" toLane="0" dir="s" state="M"/>
    <connection from=":7.6_1" to="-6" fromLane="0" toLane="0" dir="s" state="M"/>
    <connection from=":9.1_0" to="-1" fromLane="0" toLane="0" dir="s" state="M"/>
    <connection from=":9.1_1" to="9" fromLane="0" toLane="0" dir="s" state="M"/>
    <connection from=":9.3_0" to="-9" fromLane="0" toLane="0" dir="s" state="M"/>
    <connection from=":9.3_1" to="3" fromLane="0" toLane="0" dir="s" state="M"/>

</net>
